Circuit: * D:\Documents\INSA\5ISS\MOSH\SmartGazSensorHardware\spice\conditioner_circuit.asc

WARNING: Node N002 is floating.

Direct Newton iteration failed to find .op point.  (Use ".option noopiter" to skip.)
Starting Gmin stepping
Gmin = 10
Gmin = 1.07374
Gmin = 0.115292
Gmin = 0.0123794
Gmin = 0.00132923
Gmin = 0.000142725
Gmin = 1.5325e-005
Gmin = 1.6455e-006
vernier = 0.5
Gmin = 2.7607e-007
vernier = 0.25
vernier = 0.125
vernier = 0.0625
vernier = 0.03125
vernier = 0.015625
Gmin = 2.7074e-007
vernier = 0.0208333
vernier = 0.0277778
Gmin = 2.55267e-007
vernier = 0.037037
vernier = 0.0493827
Gmin = 2.32439e-007
vernier = 0.0658435
Gmin = 2.00655e-007
vernier = 0.0877914
vernier = 0.117055
Gmin = 1.56954e-007
vernier = 0.156073
vernier = 0.208098
Gmin = 1.06396e-007
vernier = 0.277464
Gmin = 5.80852e-008
vernier = 0.369952
vernier = 0.493269
Gmin = 2.14563e-008
vernier = 0.657691
vernier = 0.876922
Gmin = 4.58897e-009
vernier = 1
Gmin = 5.44392e-010
Gmin = 5.84537e-011
Gmin = 6.27641e-012
Gmin = 6.73925e-013
Gmin = 0
Gmin stepping succeeded in finding the operating point.


Date: Tue Dec 01 22:24:38 2020
Total elapsed time: 0.170 seconds.

tnom = 27
temp = 27
method = modified trap
totiter = 20011
traniter = 18869
tranpoints = 8596
accept = 5622
rejected = 2974
matrix size = 21
fillins = 12
solver = Normal
Matrix Compiler1: 1.43 KB object code size  0.3/0.2/[0.1]
Matrix Compiler2: 1.84 KB object code size  0.2/0.3/[0.1]

