Circuit: * D:\Documents\INSA\5ISS\MOSH\SmartGazSensorHardware\spice\Draft1.asc

Direct Newton iteration for .op point succeeded.

Date: Wed Dec 02 09:52:44 2020
Total elapsed time: 0.055 seconds.

tnom = 27
temp = 27
method = modified trap
totiter = 7523
traniter = 7517
tranpoints = 2860
accept = 2427
rejected = 433
matrix size = 15
fillins = 2
solver = Normal
Matrix Compiler1:      54 opcodes  0.2/[0.1]/0.1
Matrix Compiler2: off  [0.1]/0.1/0.1

